5
 xtb: 6.2.2 (9d81278992624c895f80dd42a50cac0aa55982e2)
C         1.29943415480640   -0.75618020145809    0.12862360886027
C         0.34687357644897    0.10109102015649   -0.14361374531808
C        -1.27203313770383   -0.27194911888666    0.70851270721778
N        -0.91210255656989   -0.26017641544651   -0.50499833120964
H         0.53158506880041    1.18088051246470   -0.21633632956485
