10
C5H5(^2X) - pent-1-en-4-yn-3-yl radical
C     2.346600    -0.033271     0.000188
C     1.039926    -0.400047    -0.000193
C    -0.024617     0.517420    -0.000161
C    -1.366557     0.131706     0.000022
H     0.196259     1.577942    -0.000444
C    -2.528635    -0.196050     0.000091
H    -3.550519    -0.486070     0.000449
H     3.137542    -0.767687     0.000202
H     2.631993     1.010459     0.000571
H     0.784419    -1.453190    -0.000456

-------- ENERGY AND PROPERTIES --------

 Rotational constants:    0    0    0

CCSD(T)/aug-cc-pVTZ = -193.0560395 Eh

  ALPHA_XX  ALPHA_YY  ALPHA_ZZ     ALPHA      MU_X      MU_Y      MU_Z       MU
     0     0     0     0     0     0     0     0