5
 xtb: 6.2.2 (9d81278992624c895f80dd42a50cac0aa55982e2)
C         0.67085163403015    0.05599620978734    0.13781310173372
N         0.08777991032477    1.02663941179517   -0.20634419728026
C        -0.80421481463249   -0.04229340732569    0.34009453938879
H         1.63583981405581   -0.47070318983953   -0.03235760424582
H        -1.53105489229987   -0.56908844276134   -0.23912836801671
