6
C5O_3X.(3-A) - 
 C    -0.002149     0.000507     0.053276
 C    -0.000304     0.000265     1.280958
 C     0.001551    -0.000756     2.603220
 C     0.003002    -0.000531     3.859185
 C     0.004230     0.000045     5.149267
 O     0.004978     0.000469     6.310348

-------- ENERGY AND PROPERTIES --------

 Rotational constants:       0.0      0.0     0.0 GHz

ERCCSD(T)/aug-cc-pVTZ = -265.00133857 Eh

  ALPHA_XX  ALPHA_YY  ALPHA_ZZ     ALPHA      MU_X      MU_Y      MU_Z       MU
     0.000     0.000     0.000     0.000     0.000     0.000     0.000     0.000
