5
 xtb: 6.2.2 (9d81278992624c895f80dd42a50cac0aa55982e2)
C        -0.73567855731094   -0.81002078993198   -0.90087889923029
C        -0.08915924960586   -0.00234454307264    0.00182947211956
C         0.49654536847187   -0.75814391162093    1.02408976629726
C        -0.74407297838921    1.09166827931714    0.51205950041268
C         1.07236541683938    0.47884196530841   -0.63709983960096
