8
C5H3(^2X) - penta‐2,4‐diyn‐1‐yl	
C     2.522003     0.000184    -0.000439
C     1.168277     0.000025    -0.000192
C    -0.060238    -0.000285     0.001488
C    -1.416877    -0.000314     0.000137
C    -2.623297     0.000291    -0.000575
H    -3.685823     0.000502    -0.001239
H     3.073099    -0.928835    -0.000640
H     3.073520     0.928935    -0.000634

-------- ENERGY AND PROPERTIES --------

 Rotational constants:    0    0    0

CCSD(T)/aug-cc-pVTZ = -191.8013651 Eh

  ALPHA_XX  ALPHA_YY  ALPHA_ZZ     ALPHA      MU_X      MU_Y      MU_Z       MU
     0     0     0     0     0     0     0     0