5
 xtb: 6.2.2 (9d81278992624c895f80dd42a50cac0aa55982e2)
O         1.60342678974742   -0.11144110595324    0.00689656720914
C        -0.53756859282583    0.04163844270856    0.00183921076303
H        -0.46830473971018   -0.10783696680445    1.06261005663789
H        -0.35128637256051    1.02144163962640   -0.39843766521768
H        -0.24487033326948   -0.80961636213427   -0.63961156877401
