5
 xtb: 6.2.2 (9d81278992624c895f80dd42a50cac0aa55982e2)
C        -0.00385553384262   -0.01420052095949    0.01848134547693
H        -0.88810623132373    1.14574405079974    0.00359181846888
H        -0.52910426227419   -1.08522248545655   -0.73059242989050
H         0.15487656863496   -0.37702803655186    1.28935464231497
H         1.27572794074753    0.36556406656526   -0.62622086977011
