5
 xtb: 6.2.2 (9d81278992624c895f80dd42a50cac0aa55982e2)
C         1.09402245254353    0.03474229322542   -0.01499784874986
C         0.01976873467784   -0.19300448771078    0.98319625860982
C        -1.09443330916469   -0.00806106141253    0.02035028926045
C         0.00736156119729   -0.76171596857436   -0.46877417512374
C        -0.02671843925397    0.92803922446700   -0.51977452400016
