16
C6H10(^1X) - 
C    -1.970502    -0.442011    -0.000015
C    -0.739136     0.333247    -0.000002
C     0.477096    -0.207595    -0.000056
C     1.767652     0.567086     -0.000054
C     2.994238    -0.337106     0.000070
H     1.794592     1.224001     0.872549
H     1.794674     1.223868    -0.872755
H     3.000403    -0.979963     0.880931
H     3.915842     0.242758      0.000069
H     3.000484    -0.980094    -0.880695
C    -3.188740     0.090923     0.000040
H    -1.856965    -1.521842    -0.000073
H    -4.077232    -0.524150     0.000028
H    -3.329064     1.165030     0.000098
H    -0.845579     1.415507     0.000057
H     0.559198    -1.292379    -0.000111

-------- ENERGY AND PROPERTIES --------

 Rotational constants:    0    0    0

CCSD(T)/aug-cc-pVTZ = -234.1914973 Eh

  ALPHA_XX  ALPHA_YY  ALPHA_ZZ     ALPHA      MU_X      MU_Y      MU_Z       MU
     0     0     0     0     0     0     0     0