5
 xtb: 6.2.2 (9d81278992624c895f80dd42a50cac0aa55982e2)
N         1.35511342654978   -0.01413118918647    0.00363505894343
C         0.22635944560294   -0.77231890696997   -0.23966633450739
C        -0.91743562517905   -0.42997534758067    0.57437067595940
C        -0.90517334929486    0.44896432919566   -0.57926584627627
C         0.24112615988440    0.76746231000910    0.24092558796842
