5
 xtb: 6.2.2 (9d81278992624c895f80dd42a50cac0aa55982e2)
C         0.19773679064455    1.00382080523990   -0.07081594169296
C        -0.79354192999577   -0.11413897431525   -0.70029872001052
C         0.17043940605947   -1.01629406334933   -0.04007455344996
C        -0.67931653254973    0.13531559118205    0.73226166414777
N         1.10461205783072   -0.00917229181758    0.07220735000508
