5
 xtb: 6.2.2 (9d81278992624c895f80dd42a50cac0aa55982e2)
C         0.81640098398028   -0.02579169958165   -0.46614390575832
C         0.50490505826151   -0.31617030247908    0.91859119869357
C        -0.69502728436408   -0.81891984680544    0.11686942650991
C        -0.10329254136608    0.86640262110654    0.34637187721473
C        -0.52298621651163    0.29447922775962   -0.91568859665990
