4
 xtb: 6.2.2 (9d81278992624c895f80dd42a50cac0aa55982e2)
C         1.63280744827139   -0.07115038738353   -0.02781183159209
C         0.41498521158916   -0.07640966527437    0.09610939110769
C        -1.18171769317345    0.69753141941094   -0.03599602135270
C        -0.86607496669234   -0.54997236675304   -0.03230153816116
