7

C    -0.044077    -0.002542    -0.048111
C     0.236520     0.002793     2.560716
C     0.372534     0.006049     3.775942
H     0.817665    -0.031215    -0.710077
H    -1.022201     0.024837    -0.521259
H     0.491252     0.008463     4.831850
C     0.088891    -0.000493     1.244460

-------- ENERGY AND PROPERTIES --------

 Rotational constants:    0    0    0

CCSD(T)/aug-cc-pVTZ = -154.112498 Eh

  ALPHA_XX  ALPHA_YY  ALPHA_ZZ     ALPHA      MU_X      MU_Y      MU_Z       MU
     0     0     0     0     0     0     0     0