5
 xtb: 6.2.2 (9d81278992624c895f80dd42a50cac0aa55982e2)
C        -1.27601862641261   -0.63116907869647    0.28934172624996
C        -0.00220464797251    0.09527784505324   -0.02336365239715
C         1.20358011002315    0.58373978086429   -0.26995592699685
C        -1.34975654734262    0.64728207793664   -0.01712561164698
C         1.42440071169936   -0.69513162516294    0.02110346478926
