5
 xtb: 6.2.2 (9d81278992624c895f80dd42a50cac0aa55982e2)
C         0.21482968484271    0.84949791085623   -0.18062630399551
C        -0.83507482106438    0.10619886513555   -0.71177240158891
C         0.19546833398707   -0.85508723830546    0.17616318251654
C        -0.82206388654757   -0.08361362907422    0.72974460983791
N         1.24682961279091   -0.01699564532765   -0.01350844779167
