5
 xtb: 6.2.2 (9d81278992624c895f80dd42a50cac0aa55982e2)
C         0.05990512082218    0.01434630428109   -0.29388029900194
O         1.04093658158919   -0.33986100357002    0.59232329213350
O        -1.22282893124223    0.18364498127505    0.14517699303326
H         1.87310564944423   -0.42865232567114    0.11945041741024
H        -1.72591376605280    0.68900621638832   -0.53236200604346
