5
 xtb: 6.2.2 (9d81278992624c895f80dd42a50cac0aa55982e2)
C        -1.30021614613485   -0.45551928095601   -0.05441154246209
C         0.05529998516102   -0.73442824776797    0.49346508326546
C         0.67934160507236    0.92529344856452   -0.00807330478679
C         1.21324250234563   -0.43199495431903   -0.15912085819734
C        -0.64766694644067    0.69664903447500   -0.27185837782272
