8
C5H3_2X.(2-A) - 
 C    -0.204472    -0.174127     0.126124
 C    -0.140713    -0.120797     1.477297
 C    -0.081638    -0.071583     2.703404
 C    -0.019041    -0.019074     4.057581
 C     0.036587     0.028418     5.261782
 H     0.085760     0.069977     6.322356
 H     0.371843    -0.903275    -0.424320
 H    -0.832608     0.511155    -0.423953

-------- ENERGY AND PROPERTIES --------

 Rotational constants:       0.0000000       0.0000000       0.0000000 GHz

ERCCSD(T)/aug-cc-pVTZ = -191.80360738 Eh

  ALPHA_XX  ALPHA_YY  ALPHA_ZZ     ALPHA      MU_X      MU_Y      MU_Z       MU
     0.000     0.000     0.000     0.000     0.000     0.000     0.000     0.000
