5
 xtb: 6.2.2 (9d81278992624c895f80dd42a50cac0aa55982e2)
C        -0.41695337793100    0.75796097228865   -0.01503480191814
C         0.75660996702281    0.19604442106896    0.00411454542329
C        -0.61164351201555   -0.80631142008780    0.00473924265747
N         1.93710413066640   -0.12271650734834    0.02195625795272
C        -1.66497302397971   -0.01866452101357   -0.01586655892193
