7
C4H3_s1_2X.(2-A) - 
 C     0.048403     0.000000    -0.139862
 C     0.313030     0.000000     2.471392
 C     0.436705    -0.000000     3.687671
 H     0.911832    -0.000000    -0.800032
 H    -0.929098    -0.000000    -0.614920
 H     0.544447    -0.000000     4.744411
 C     0.178571     0.000000     1.153097

-------- ENERGY AND PROPERTIES --------

 Rotational constants:       0.0      0.0     0.0 GHz

ERCCSD(T)/aug-cc-pVTZ = -153.78058659 Eh

  ALPHA_XX  ALPHA_YY  ALPHA_ZZ     ALPHA      MU_X      MU_Y      MU_Z       MU
     0.000     0.000     0.000     0.000     0.000     0.000     0.000     0.000
