5
 xtb: 6.2.2 (9d81278992624c895f80dd42a50cac0aa55982e2)
C        -0.00474019920029   -0.24050824629600   -0.04768139632163
C         0.79366489304137    0.97834475987163   -0.01638563805304
C        -0.75892777430721    1.00266643717825   -0.06046006007703
H         0.08439212646067   -0.74701889380358    0.96382103501442
H        -0.11385452432527   -0.99040639959299   -0.78738631203106
