5
 xtb: 6.2.2 (9d81278992624c895f80dd42a50cac0aa55982e2)
C         0.01674679585713    0.04038380085771   -0.16713285549034
N        -1.11888975561359    0.75672487021961   -0.03960245631012
N         1.25716447769509    0.47778675689924    0.13103840284952
H        -0.12377811829991   -0.48055712522831    0.93923116309300
H        -0.03464567603395   -0.79228881795437   -0.81083908123261
