5
 xtb: 6.2.2 (9d81278992624c895f80dd42a50cac0aa55982e2)
N         1.28839062412261   -0.79222249409351    0.03679994387215
C         0.40362602535556    0.04357906875983    0.11464137252328
C        -1.00401370388174   -0.11718534166700    0.57610036355624
C        -1.31460934042103   -0.24684821992707   -0.66800795694336
H         0.62674071682870    1.11367623160019   -0.04218387502362
