5
 xtb: 6.2.2 (9d81278992624c895f80dd42a50cac0aa55982e2)
C         1.23287102413988   -0.02971583715408   -0.17879007927769
N         0.13749498335574    0.83906560381519    0.05295425389714
C        -0.66985556032123   -0.00179952290742   -0.82554539314291
C        -0.83339500585895    0.05171510352625    0.78330456737975
C         0.13280791267905   -0.85961670118469    0.16058265268884
