5
 xtb: 6.2.2 (9d81278992624c895f80dd42a50cac0aa55982e2)
O         1.30028113425830   -0.04451695415689    0.01521243544845
C        -0.01793859444468   -0.08599830260355    0.01966375041915
H        -0.46517059898285   -0.00063419130668    1.02737219766266
H        -0.31871067508841    0.98467537923157   -0.37823890274726
H        -0.49095803455196   -0.72736954296012   -0.71292069697736
