5
 xtb: 6.2.2 (9d81278992624c895f80dd42a50cac0aa55982e2)
C         0.73401078892594   -0.07812287436986    0.60418051951459
N        -0.59049068723690   -0.10166928726948    0.21980734035242
C         1.71607656640378   -0.00549082419115   -0.41264009205906
H        -0.89401286684564   -0.65039014772604   -0.56472372542424
H        -0.96440040691945    0.89304551313712    0.17007033063945
