4
 xtb: 6.2.2 (9d81278992624c895f80dd42a50cac0aa55982e2)
C        -0.00019711208094    0.00137623835040    0.00062520153157
H         1.38900362406837   -0.27726219499102   -0.00242030825496
H        -1.00951643920097   -1.17333898747054    0.00023165114595
H        -0.37914673525912    1.44561968793760    0.00154900640314
