5
 xtb: 6.2.2 (9d81278992624c895f80dd42a50cac0aa55982e2)
C         1.21653682707204   -0.45662007405174   -0.02809102045202
N         0.08029659345153   -0.84153691099295    0.48003618523945
C        -0.82795209664765    0.91510372947401   -0.35356952566880
C        -1.09790405763912   -0.40422804667341    0.01321953052934
C         0.62371944650173    0.78712522387537   -0.11167581104388
