2
AlCl(^1Sigma^+) - aluminum monocloride
AL     0.000000     0.000000    -1.225945
CL     0.000000     0.000000     0.933006

-------- ENERGY AND PROPERTIES --------

 Rotational constants:       7.0767926      7.0767926      0.0000000 GHz

ERCCSD(T)/aug-cc-pVTZ = -701.796356 Eh

  ALPHA_XX  ALPHA_YY  ALPHA_ZZ     ALPHA      MU_X      MU_Y      MU_Z       MU
     7.272     7.272     9.231     7.925     0.000     0.000     1.693     1.693
