4
c-SiC3(^1A_1)
SI     0.000000     0.000000    -1.178741
 C     0.000000     0.748479     0.507694
 C     0.000000    -0.748479     0.507694
 C     0.000000     0.000000     1.740881

-------- ENERGY AND PROPERTIES --------

 Rotational constants:       5.3156579      6.1921539     37.5533641 GHz

ECCSD(T)/aug-cc-pVTZ = -402.922695 Eh

  ALPHA_XX  ALPHA_YY  ALPHA_ZZ     ALPHA      MU_X      MU_Y      MU_Z       MU
     6.431     7.432    10.536     8.133     0.000     0.000     4.063     4.063
