10
C10(^1Sigma_g^+)
 C     0.000000     0.000000    -5.885995
 C     0.000000     0.000000    -4.564311
 C     0.000000     0.000000    -3.248537
 C     0.000000     0.000000    -1.953296
 C     0.000000     0.000000    -0.648128
 C     0.000000     0.000000     0.648128
 C     0.000000     0.000000     1.953296
 C     0.000000     0.000000     3.248537
 C     0.000000     0.000000     4.564311
 C     0.000000     0.000000     5.885995

-------- ENERGY AND PROPERTIES --------

 Rotational constants:       0.2994060      0.2994060      0.0000000 GHz

ECCSD(T)/aug-cc-pVDZ = -379.537187 Eh

  ALPHA_XX  ALPHA_YY  ALPHA_ZZ     ALPHA      MU_X      MU_Y      MU_Z       MU
     9.713     9.713    93.684    37.703     0.000     0.000     0.000     0.000
