11
C10H(^2Pi) -- decapentaynyl radical
 H    -6.877187     0.000000     0.000000
 C    -5.798652     0.000000     0.000000
 C    -4.561821     0.000000     0.000000
 C    -3.180795     0.000000     0.000000
 C    -1.935998     0.000000     0.000000
 C    -0.569228     0.000000     0.000000
 C     0.682934     0.000000     0.000000
 C     2.036106     0.000000     0.000000
 C     3.302485     0.000000     0.000000
 C     4.641489     0.000000     0.000000
 C     5.960600     0.000000     0.000000

-------- ENERGY AND PROPERTIES --------

 Rotational constants:       0.2898141      0.2898141      0.0000000 GHz

ERCCSD(T)/aug-cc-pVDZ = -380.222363 Eh

  ALPHA_XX  ALPHA_YY  ALPHA_ZZ     ALPHA      MU_X      MU_Y      MU_Z       MU
     9.567     9.546    74.039    31.051     0.000     0.000     7.138     7.138
