5
C2H3(^2A') - vinyl radical
 C    -0.621442     0.022951     0.000000
 C     0.691726    -0.084457     0.000000
 H    -1.109847     0.998645     0.000000
 H    -1.268529    -0.848548     0.000000
 H     1.540848     0.582835     0.000000

-------- ENERGY AND PROPERTIES --------

 Rotational constants:     233.3930046     32.3087479     28.3800753 GHz

ERCCSD(T)/aug-cc-pVTZ = -77.757334 Eh

  ALPHA_XX  ALPHA_YY  ALPHA_ZZ     ALPHA      MU_X      MU_Y      MU_Z       MU
     4.994     3.437     3.136     3.856     0.271    -0.625     0.000     0.681
