6
C2H4(^1A_1) - ethylene
 C     0.000000     0.000000     0.669026
 C     0.000000     0.000000    -0.669026
 H     0.000000     0.924692     1.234324
 H     0.000000    -0.924692     1.234324
 H     0.000000     0.924692    -1.234324
 H     0.000000    -0.924692    -1.234324

-------- ENERGY AND PROPERTIES --------

 Rotational constants:      24.8439445     29.9133538    146.5980886 GHz

ECCSD(T)/aug-cc-pVTZ = -78.443764 Eh

  ALPHA_XX  ALPHA_YY  ALPHA_ZZ     ALPHA      MU_X      MU_Y      MU_Z       MU
     3.263     3.686     5.077     4.009     0.000     0.000     0.000     0.000
