5
C2H5(^2A') -- Ethyl radical
 C    -0.717070     0.000000     0.000309
 C     0.775527     0.000000    -0.013456
 H    -1.111819     0.000000     1.026796
 H    -1.122071    -0.886015    -0.494667
 H    -1.122071     0.886015    -0.494667
 H     1.329681     0.926379     0.059602
 H     1.329681    -0.926379     0.059602

-------- ENERGY AND PROPERTIES --------

 Rotational constants:     103.6081210     22.6491489     21.0044423 GHz

ERCCSD(T)/aug-cc-pVTZ = -79.007767 Eh

  ALPHA_XX  ALPHA_YY  ALPHA_ZZ     ALPHA      MU_X      MU_Y      MU_Z       MU
     4.598     3.894     3.816     4.103     0.265     0.000    -0.136     0.298
