8
C2H6(^1A1g) - Ethane
 C     0.000000     0.000000     0.7646280
 C     0.000000     0.000000    -0.7646280
 H     0.000000     1.018996     1.1594750
 H    -0.882476    -0.509498     1.1594750
 H     0.882476    -0.509498     1.1594750
 H     0.000000    -1.018996    -1.1594750
 H    -0.882476     0.509498    -1.1594750
 H     0.882476     0.509498    -1.1594750

-------- ENERGY AND PROPERTIES --------

 Rotational constants:    0    0    0

CCSD(T)/aug-cc-pVTZ = -79.679950 Eh

  ALPHA_XX  ALPHA_YY  ALPHA_ZZ     ALPHA      MU_X      MU_Y      MU_Z       MU
     0     0     0     0     0     0     0     0