10
C2H6CO(^1A_1) -- acetone
 O     0.000000     0.000000    -1.327266
 C     0.000000     0.000000    -0.098171
 C    -1.298551     0.000000     0.703408
 C     1.298551     0.000000     0.703408
 H    -2.161385     0.000000     0.019465
 H     2.161385     0.000000     0.019465
 H    -1.336452     0.890884     1.358734
 H    -1.336452    -0.890884     1.358734
 H     1.336452    -0.890884     1.358734
 H     1.336452     0.890884     1.358734

-------- ENERGY AND PROPERTIES --------

 Rotational constants:       9.9424345      4.8243508      8.3775825 GHz

ECCSD(T)/aug-cc-pVDZ = -192.678827 Eh

  ALPHA_XX  ALPHA_YY  ALPHA_ZZ     ALPHA      MU_X      MU_Y      MU_Z       MU
     6.794     5.079     7.018     6.297     0.000     0.000    -2.964     2.964
