3
C2O(^3Sigma^-) - dicarbon monoxide
 C     0.000000     0.000000    -1.425963
 C     0.000000     0.000000    -0.053609
 O     0.000000     0.000000     1.110738

-------- ENERGY AND PROPERTIES --------

 Rotational constants:      11.4348345     11.4348345      0.0000000 GHz

ERCCSD(T)/aug-cc-pVTZ = -151.026024 Eh

  ALPHA_XX  ALPHA_YY  ALPHA_ZZ     ALPHA      MU_X      MU_Y      MU_Z       MU
     3.113     3.113     6.035     4.087     0.000     0.000    -1.438     1.438
