10
C4H6(^1A_1) -- 1,3-butadiene
 C    -0.613521    -0.407814     0.000000
 C     0.613521     0.407814     0.000000
 C    -1.867580     0.120906     0.000000
 C     1.867580    -0.120906     0.000000
 H    -0.483662    -1.500226     0.000000
 H     0.483662     1.500226     0.000000
 H    -2.757782    -0.517896     0.000000
 H    -2.024814     1.207326     0.000000
 H     2.757782     0.517896     0.000000
 H     2.024814    -1.207326     0.000000

-------- ENERGY AND PROPERTIES --------

 Rotational constants:      40.8798706      4.3233454      3.9098502 GHz

ECCSD(T)/aig-cc=pVDZ = -155.565060 Eh

  ALPHA_XX  ALPHA_YY  ALPHA_ZZ     ALPHA      MU_X      MU_Y      MU_Z       MU
    12.184     6.897     5.519     8.200     0.000     0.000     0.000     0.000
