6
C4N2(^1Sigma_g^+) - dicyanoacetylene
 N     0.000000     0.000000    -3.154777
 N     0.000000     0.000000     3.154777
 C     0.000000     0.000000    -1.987427
 C     0.000000     0.000000    -0.607896
 C     0.000000     0.000000     0.607896
 C     0.000000     0.000000     1.987427

-------- ENERGY AND PROPERTIES --------

 Rotational constants:       1.3210186      1.3210186      0.0000000 GHz

ECCSD(T)/aug-cc-pVTZ = -261.3811767 Eh

  ALPHA_XX  ALPHA_YY  ALPHA_ZZ     ALPHA      MU_X      MU_Y      MU_Z       MU
     4.899     4.899    17.278     9.025     0.000     0.000     0.000     0.000
