5
C4S(^3Sigma^-)
 S     0.000000     0.000000    -2.100775
 C     0.000000     0.000000    -0.535936
 C     0.000000     0.000000     0.748173
 C     0.000000     0.000000     2.047291
 C     0.000000     0.000000     3.347901

-------- ENERGY AND PROPERTIES --------

 Rotational constants:       1.5012897      1.5012897      0.0000000 GHz

ERCCSD(T)/aug-cc-pVTZ = -549.648109 Eh

  ALPHA_XX  ALPHA_YY  ALPHA_ZZ     ALPHA      MU_X      MU_Y      MU_Z       MU
     6.376     6.376    28.339    13.697     0.000     0.000     4.628     4.628
