6
C5H(^2Pi)
 H     0.000000     0.000000    -3.564100
 C     0.000000     0.000000    -2.498554
 C     0.000000     0.000000    -1.272419
 C     0.000000     0.000000     0.071423
 C     0.000000     0.000000     1.338395
 C     0.000000     0.000000     2.660247

-------- ENERGY AND PROPERTIES --------

 Rotational constants:       2.3636872      2.3636872      0.0000000 GHz

ERCCSD(T)/aug-cc-pVTZ = -190.486119 Eh

  ALPHA_XX  ALPHA_YY  ALPHA_ZZ     ALPHA      MU_X      MU_Y      MU_Z       MU
     5.465     5.362    20.684    10.504     0.000     0.000     4.835     4.835
