16
C6H10(^1Ap) - 
C    -0.084765     0.043058    -0.046345
C     0.066819    -0.122748     1.429830
H     0.292174    -0.832511    -0.578614
H     0.454921     0.919562    -0.401724
H    -1.135787     0.150811    -0.321579
C     0.768005     0.686812     2.220220
C     0.899562     0.502397     3.658372
C     1.599386     1.307130     4.452195
H     0.384088    -0.353839     4.082347
H     2.123173     2.167653     4.054095
H     1.671066     1.133102     5.516320
H    -0.438600    -0.972770     1.880418
H     1.280924     1.542691     1.789321

-------- ENERGY AND PROPERTIES --------

 Rotational constants:    0    0    0

CCSD(T)/aug-cc-pVTZ = -194.9521162 Eh

  ALPHA_XX  ALPHA_YY  ALPHA_ZZ     ALPHA      MU_X      MU_Y      MU_Z       MU
     0     0     0     0     0     0     0     0