7
C6H(^2Pi) - hexatriynyl radical
 H     0.000000     0.000000    -4.209545
 C     0.000000     0.000000    -3.143956
 C     0.000000     0.000000    -1.922786
 C     0.000000     0.000000    -0.566471
 C     0.000000     0.000000     0.676310
 C     0.000000     0.000000     2.005744
 C     0.000000     0.000000     3.304416

-------- ENERGY AND PROPERTIES --------

 Rotational constants:       1.3665988      1.3665988      0.0000000 GHz

ERCCSD(T)/aug-cc-pVTZ = -228.502818 Eh

  ALPHA_XX  ALPHA_YY  ALPHA_ZZ     ALPHA      MU_X      MU_Y      MU_Z       MU
     6.265     6.318    28.454    13.679     0.000     0.000     5.601     5.601
