8
C6N2(^1Sigma_g^+) -- dicyanodiacetylene
 N     0.000000     0.000000    -4.449178
 N     0.000000     0.000000     4.449178
 C     0.000000     0.000000    -3.280722
 C     0.000000     0.000000    -1.903066
 C     0.000000     0.000000    -0.683350
 C     0.000000     0.000000     0.683350
 C     0.000000     0.000000     1.903066
 C     0.000000     0.000000     3.280722

-------- ENERGY AND PROPERTIES --------

 Rotational constants:       0.5545691      0.5545691      0.0000000 GHz

ECCSD(T)/aug-cc-pVTZ' = -337.386391 Eh

  ALPHA_XX  ALPHA_YY  ALPHA_ZZ     ALPHA      MU_X      MU_Y      MU_Z       MU
     6.482     6.482    30.294    14.419     0.000     0.000     0.000     0.000
