15
C7H8(^1A) - 
C     3.452566    -0.251213    -0.000021
C    -1.486610     0.195031     0.000083
C    -2.832620    -0.085663     0.000060
C    -4.007638    -0.332036    -0.000064
H    -5.047494    -0.549490    -0.000289
H     3.728581     0.329474     0.881183
H     3.728626     0.329524    -0.881179
C    -0.310172     0.447382     0.000102
H     4.047892    -1.162896    -0.000034
C     1.963578    -0.565939    -0.000056
C     1.121184     0.715227    -0.000128
H     1.699904    -1.160816    -0.875063
H     1.699943    -1.160706     0.875001
H     1.370652     1.318428     0.876523
H     1.370164     1.319753    -0.875996

-------- ENERGY AND PROPERTIES --------

 Rotational constants:    0    0    0

CCSD(T)/aug-cc-pVTZ = -270.94183 Eh

  ALPHA_XX  ALPHA_YY  ALPHA_ZZ     ALPHA      MU_X      MU_Y      MU_Z       MU
     0     0     0     0     0     0     0     0