8
C7H(^2Pi)
 H     0.000000     0.000000    -4.852821
 C     0.000000     0.000000    -3.787029
 C     0.000000     0.000000    -2.566802
 C     0.000000     0.000000    -1.207341
 C     0.000000     0.000000     0.031120
 C     0.000000     0.000000     1.358790
 C     0.000000     0.000000     2.632396
 C     0.000000     0.000000     3.946106

-------- ENERGY AND PROPERTIES --------

 Rotational constants:       0.8637677      0.8637677      0.0000000 GHz

ERCCSD(T)/aug-cc-pVTZ' = -266.496297 Eh

  ALPHA_XX  ALPHA_YY  ALPHA_ZZ     ALPHA      MU_X      MU_Y      MU_Z       MU
     6.966     7.015    38.134    17.372     0.000     0.000     5.837     5.837

=====

8
C7H(^2Pi)
 H     0.000000     0.000000    -4.915972
 C     0.000000     0.000000    -3.837246
 C     0.000000     0.000000    -2.598154
 C     0.000000     0.000000    -1.224131
 C     0.000000     0.000000     0.031384
 C     0.000000     0.000000     1.375294
 C     0.000000     0.000000     2.664580
 C     0.000000     0.000000     4.000812

-------- ENERGY AND PROPERTIES --------

 Rotational constants:       0.8415214      0.8415214      0.0000000 GHz

ERCCSD(T)/aug-cc-pVDZ = -266.285928 Eh

  ALPHA_XX  ALPHA_YY  ALPHA_ZZ     ALPHA      MU_X      MU_Y      MU_Z       MU
     6.975     7.131    39.283    17.796     0.000     0.000     5.752     5.752
