8
C7N(^2Pi)
 N     0.000000     0.000000    -4.419826
 C     0.000000     0.000000    -3.234738
 C     0.000000     0.000000    -1.846009
 C     0.000000     0.000000    -0.602003
 C     0.000000     0.000000     0.760916
 C     0.000000     0.000000     2.022870
 C     0.000000     0.000000     3.365734
 C     0.000000     0.000000     4.687437

-------- ENERGY AND PROPERTIES --------

 Rotational constants:       0.5611252      0.5611252      0.0000000 GHz

ERCCSD(T)/aug-cc-pVDZ = -320.340957 Eh

  ALPHA_XX  ALPHA_YY  ALPHA_ZZ     ALPHA      MU_X      MU_Y      MU_Z       MU
     7.301     7.374    42.159    18.945     0.000     0.000     0.871     0.871
