10
C8H2(^1Sigma_g^+) -- tetraacetylene -- octatetrayne
 H     0.000000     0.000000    -5.629567
 H     0.000000     0.000000     5.629567
 C     0.000000     0.000000    -4.551831
 C     0.000000     0.000000    -3.315490
 C     0.000000     0.000000    -1.930688
 C     0.000000     0.000000    -0.689004
 C     0.000000     0.000000     0.689004
 C     0.000000     0.000000     1.930688
 C     0.000000     0.000000     3.315490
 C     0.000000     0.000000     4.551831

-------- ENERGY AND PROPERTIES --------

 Rotational constants:       0.5454050      0.5454050      0.0000000 GHz

ECCSD(T)/aug-cc-pVDZ = -304.974998 Eh

  ALPHA_XX  ALPHA_YY  ALPHA_ZZ     ALPHA      MU_X      MU_Y      MU_Z       MU
     7.725     7.725    40.314    18.588     0.000     0.000     0.000     0.000
