9
C8H(^2Pi) -- octatetraynyl radical
 H     0.000000     0.000000    -5.570697
 C     0.000000     0.000000    -4.492018
 C     0.000000     0.000000    -3.254383
 C     0.000000     0.000000    -1.876097
 C     0.000000     0.000000    -0.627242
 C     0.000000     0.000000     0.730553
 C     0.000000     0.000000     1.995185
 C     0.000000     0.000000     3.336151
 C     0.000000     0.000000     4.655333

-------- ENERGY AND PROPERTIES --------

 Rotational constants:       0.5640022      0.5640022      0.0000000 GHz

ERCCSD(T)/aug-cc-pVDZ = -304.269066 Eh

  ALPHA_XX  ALPHA_YY  ALPHA_ZZ     ALPHA      MU_X      MU_Y      MU_Z       MU
     7.970     7.905    49.666    21.847     0.000     0.000     6.437     6.437
