10
C9N(^2Pi)
 N     0.000000     0.000000    -5.721002
 C     0.000000     0.000000    -4.536408
 C     0.000000     0.000000    -3.146186
 C     0.000000     0.000000    -1.905449
 C     0.000000     0.000000    -0.534697
 C     0.000000     0.000000     0.714998
 C     0.000000     0.000000     2.071030
 C     0.000000     0.000000     3.335774
 C     0.000000     0.000000     4.675754
 C     0.000000     0.000000     5.996765

-------- ENERGY AND PROPERTIES --------

 Rotational constants:       0.2875757      0.2875757      0.0000000 GHz

ERCCSD(T)/aug-cc-pVDZ = -396.295274 Eh

  ALPHA_XX  ALPHA_YY  ALPHA_ZZ     ALPHA      MU_X      MU_Y      MU_Z       MU
     9.002     8.925    64.584    27.504     0.000     0.000     1.217     1.217
