6
H2CNH(^1A') -- ketenimine
 N    -1.243278     0.000000     0.081155
 C    -0.014945     0.000000    -0.026329
 C     1.302174     0.000000    -0.000575
 H    -1.744449     0.000000    -0.806688
 H     1.841187     0.936471    -0.000239
 H     1.841187    -0.936471    -0.000239

-------- ENERGY AND PROPERTIES --------

 Rotational constants:     200.1994571      9.5938259      9.4130971 GHz

ECCSD(T)/aug-cc-pVTZ = -132.491773 Eh

  ALPHA_XX  ALPHA_YY  ALPHA_ZZ     ALPHA      MU_X      MU_Y      MU_Z       MU
     8.138     3.720     3.896     5.251    -0.513     0.000     1.383     1.475
