7
CH2CCH2(^1A1) - 1,2-propadiene
C     0.000000    -0.000001    -0.000034
C     1.299147    -0.000001     0.000003
C    -1.299142     0.000002     0.000008
H     1.855695     0.924649     0.078976
H     1.855730    -0.924630    -0.078924
H    -1.855787     0.078943    -0.924585
H    -1.855669    -0.078959     0.924673

-------- ENERGY AND PROPERTIES --------

 Rotational constants:    0    0    0

CCSD(T)/aug-cc-pVTZ = -116.4407099 Eh

  ALPHA_XX  ALPHA_YY  ALPHA_ZZ     ALPHA      MU_X      MU_Y      MU_Z       MU
     0     0     0     0     0     0     0     0