8
CH2CH2OH(^2A) - 2-hydroxy ethyl radical
 O    -1.102466    -0.377344    -0.0574460
 C    -0.008772     0.522274     0.0354630
 C     1.245494    -0.253559    -0.0183810
 H    -1.913936     0.108442     0.1019960
 H    -0.070704     1.091137     0.9763740
 H    -0.038140     1.255645    -0.7797680
 H     2.181855     0.241769    -0.2182020
 H     1.240320    -1.290527     0.2766760

-------- ENERGY AND PROPERTIES --------

 Rotational constants:    0    0    0

CCSD(T)/aug-cc-pVTZ = -154.112498 Eh

  ALPHA_XX  ALPHA_YY  ALPHA_ZZ     ALPHA      MU_X      MU_Y      MU_Z       MU
     0     0     0     0     0     0     0     0