11
CH3C6H(^1A') -- methyltriacetylene -- 1,3,5-heptatriyne
 H     0.000000     0.000000    -5.089744
 H     1.035225     0.000000     4.335889
 H    -0.517613    -0.896531     4.335889
 H    -0.517613     0.896531     4.335889
 C     0.000000     0.000000    -4.012471
 C     0.000000     0.000000    -2.776151
 C     0.000000     0.000000    -1.389522
 C     0.000000     0.000000    -0.148855
 C     0.000000     0.000000     1.236963
 C     0.000000     0.000000     2.473456
 C     0.000000     0.000000     3.952123

-------- ENERGY AND PROPERTIES --------

 Rotational constants:       0.7504379      0.7504379    155.9520802 GHz

ECCSD(T)/aug-cc-pVDZ = -268.238156 Eh

  ALPHA_XX  ALPHA_YY  ALPHA_ZZ     ALPHA      MU_X      MU_Y      MU_Z       MU
     7.572     7.572    29.590    14.911     0.000     0.000    -1.435     1.435
