9
CH3C4H(^1A') -- methyl diacetylene -- pentadiyne
 H     0.000000     0.000000    -3.732475
 H     1.022320     0.000000     2.990608
 H    -0.511160    -0.885355     2.990608
 H    -0.511160     0.885355     2.990608
 C     0.000000     0.000000    -2.667925
 C     0.000000     0.000000    -1.451719
 C     0.000000     0.000000    -0.072551
 C     0.000000     0.000000     1.144206
 C     0.000000     0.000000     2.608313

-------- ENERGY AND PROPERTIES --------

 Rotational constants:       2.0136680      2.0136680    159.9141753 GHz

ECCSD(T)/aug-cc-pVTZ' = -192.450313 Eh

  ALPHA_XX  ALPHA_YY  ALPHA_ZZ     ALPHA      MU_X      MU_Y      MU_Z       MU
     5.864     5.863    16.060     9.262     0.000     0.000    -1.151     1.151
