8
CH3CHOH(^2A) - 1-hydroxy-ethyl radical
 C    -0.092210     0.510918    -0.107235
 C     1.227283    -0.165053     0.013159
 O    -1.165831    -0.343305     0.020724
 H    -0.231000     1.522178     0.263554
 H     1.290201    -1.005452    -0.682009
 H     2.032345     0.534650    -0.214110
 H     1.394812    -0.561806     1.023694
 H    -1.970152     0.181679     0.007534

-------- ENERGY AND PROPERTIES --------

 Rotational constants:    0    0    0

CCSD(T)/aug-cc-pVTZ = -154.134443 Eh

  ALPHA_XX  ALPHA_YY  ALPHA_ZZ     ALPHA      MU_X      MU_Y      MU_Z       MU
     0     0     0     0     0     0     0     0