8
CH3C3N(^1A') -- cyanomethylacetylene
 C     0.000000     0.000000    -2.620750
 C     0.000000     0.000000    -1.158151
 C     0.000000     0.000000     0.056524
 C     0.000000     0.000000     1.438160
 H     1.023603     0.000000    -2.998197
 H    -0.511802     0.886466    -2.998197
 H    -0.511802    -0.886466    -2.998197
 N     0.000000     0.000000     2.606020

-------- ENERGY AND PROPERTIES --------

 Rotational constants:       2.0429504      2.0429504    159.5135300 GHz

ECCSD(T)/aug-cc-pVTZ' = -208.536166 Eh

  ALPHA_XX  ALPHA_YY  ALPHA_ZZ     ALPHA      MU_X      MU_Y      MU_Z       MU
     5.236     5.236    13.551     8.008     0.000     0.000     5.041     5.041
