10
CH3CH2C2H(^1Ap) -- 1-butyne -- ethylacetylene
 C    -1.661135    -0.505318     0.000000
 C    -0.640329     0.654799     0.000000
 C     0.761231     0.165709     0.000000
 C     1.910666    -0.277917     0.000000
 H     2.921828    -0.649022     0.000000
 H    -2.691788    -0.106849     0.000000
 H    -1.528592    -1.138916     0.894683
 H    -1.528592    -1.138916    -0.894683
 H    -0.793539     1.294768     0.889041
 H    -0.793539     1.294768    -0.889041

-------- ENERGY AND PROPERTIES --------

 Rotational constants:      26.4433910      4.4343005      3.9897863 GHz

ECCSD(T)/aug-cc-pVDZ = -155.540596 Eh

  ALPHA_XX  ALPHA_YY  ALPHA_ZZ     ALPHA      MU_X      MU_Y      MU_Z       MU
     9.491     6.457     5.857     7.268     0.738    -0.155     0.000     0.755
