10
CH3C5N(^1A') -- cyanomethyldiacetylene
 N     0.000000     0.000000    -3.937784
 C     0.000000     0.000000    -2.753471
 C     0.000000     0.000000    -1.361703
 C     0.000000     0.000000    -0.123396
 C     0.000000     0.000000     1.261339
 C     0.000000     0.000000     2.497437
 C     0.000000     0.000000     3.975234
 H     1.036018     0.000000     4.355961
 H    -0.518009    -0.897218     4.355961
 H    -0.518009     0.897218     4.355961

-------- ENERGY AND PROPERTIES --------

 Rotational constants:       0.7503405      0.7503405    155.7133813 GHz

ECCSD(T)/aug-cc-pVDZ = -284.316482

  ALPHA_XX  ALPHA_YY  ALPHA_ZZ     ALPHA      MU_X      MU_Y      MU_Z       MU
     6.960     6.959    26.039    13.319     0.000     0.000    -5.929     5.929
