8
CH3COOH(^1A') -- acetic acid
 C     0.038918     0.101494     0.000000
 C    -1.458462    -0.041202     0.000000
 O     0.656569     1.140510     0.000000
 O     0.651959    -1.110749     0.000000
 H     1.603006    -0.926366     0.000000
 H    -1.916750     0.943790     0.000000
 H    -1.770584    -0.604147     0.880814
 H    -1.770584    -0.604147    -0.880814

-------- ENERGY AND PROPERTIES --------

 Rotational constants:      11.2914727      9.4566935      5.3158053 GHz

ECCSD(T)/aug-cc-pVTZ' = -228.762061 Eh

  ALPHA_XX  ALPHA_YY  ALPHA_ZZ     ALPHA      MU_X      MU_Y      MU_Z       MU
     5.655     5.512     3.898     5.022     0.885     1.427     0.000     1.679
