7
CH3CHO(1A') -- Acetaldehyde
 C    -1.260937     0.166480     0.000000
 C     0.124279    -0.421795     0.000000
 O     1.146288     0.232689     0.000000
 H     0.173974    -1.528310     0.000000
 H    -1.214067     1.254604     0.000000
 H    -1.805254    -0.188710    -0.880226
 H    -1.805254    -0.188710     0.880226

-------- ENERGY AND PROPERTIES --------

 Rotational constants:      56.7168863     10.1170700      9.0667447 GHz

ECCSD(T)/aug-cc-pVTZ = -153.598463 Eh

  ALPHA_XX  ALPHA_YY  ALPHA_ZZ     ALPHA      MU_X      MU_Y      MU_Z       MU
     5.288     4.516     3.517     4.440     2.561     1.112     0.000     2.792

===

7
CH3CHO(1A') -- Acetaldehyde
   1  C1      6.00   -2.383249784    0.314475405    0.000000000
   2  C2      6.00    0.235122414   -0.796940884    0.000000000
   3  O3      8.00    2.166503856    0.439697722    0.000000000
   4  H4      1.00    0.328589242   -2.887190844    0.000000000
   5  H5      1.00   -2.295996143    2.369969007    0.000000000
   6  H5      1.00   -3.412195092   -0.356508464   -1.662196652
   7  H5      1.00   -3.412195092   -0.356508464    1.662196652

-------- ENERGY AND PROPERTIES --------

 Rotational constants:      56.7551668     10.1137090      9.0642954 GHz

ECCSD(T)/aug-cc-pVTZ' = -153.592147 Eh

  ALPHA_XX  ALPHA_YY  ALPHA_ZZ     ALPHA      MU_X      MU_Y      MU_Z       MU
     5.274     4.506     3.503     4.428     2.550     1.108     0.000     2.780
