9
CH3OCH3(^1A_1) -- dimethyl ether
 O     0.000000     0.000000    -0.549659
 C    -1.164787     0.000000     0.251680
 C     1.164787     0.000000     0.251680
 H    -2.022966     0.000000    -0.418984
 H     2.022966     0.000000    -0.418984
 H    -1.206125    -0.891515     0.891167
 H    -1.206125     0.891515     0.891167
 H     1.206125     0.891515     0.891167
 H     1.206125    -0.891515     0.891167

-------- ENERGY AND PROPERTIES --------

 Rotational constants:      38.5323000      8.9261867     10.1256583 GHz

ECCSD(T)/aug-cc-pVTZ' = -154.783508 Eh

  ALPHA_XX  ALPHA_YY  ALPHA_ZZ     ALPHA      MU_X      MU_Y      MU_Z       MU
     5.612     4.500     4.626     4.913     0.000     0.000    -1.335     1.335
