8
CH3OCH2(^2A) - methoxymethyl/radical
 C    -0.090716     0.518772    -0.110683
 C     1.236555    -0.168699     0.013042
 O    -1.175307    -0.345746     0.023301
 H    -0.233486     1.538493     0.276444
 H     1.299708    -1.015161    -0.695585
 H     2.051881     0.541587    -0.210357
 H     1.399044    -0.573714     1.035658
 H    -1.989724     0.174320    -0.006725

-------- ENERGY AND PROPERTIES --------

 Rotational constants:    0    0    0

CCSD(T)/aug-cc-pVTZ = -153.986980 Eh

  ALPHA_XX  ALPHA_YY  ALPHA_ZZ     ALPHA      MU_X      MU_Y      MU_Z       MU
     0     0     0     0     0     0     0     0