6
H2C4(^1A_1) - butatrienylidene
 C     0.000000     0.000000     1.855501
 C     0.000000     0.000000     0.542960
 C     0.000000     0.000000    -0.753759
 C     0.000000     0.000000    -2.047800
 H     0.000000     0.935889     2.401737
 H     0.000000    -0.935889     2.401737

-------- ENERGY AND PROPERTIES --------

 Rotational constants:       4.3763547      4.4443084    286.2225760 GHz

ECCSD(T)/aug-cc-pVTZ = -153.133733 Eh

  ALPHA_XX  ALPHA_YY  ALPHA_ZZ     ALPHA      MU_X      MU_Y      MU_Z       MU
     4.834     4.995    14.536     8.122     0.000     0.000    -4.433     4.433
