7
H2C5(^1A_1) - pentatetraenylidene
 C     0.000000     0.000000     2.505189
 C     0.000000     0.000000     1.176188
 C     0.000000     0.000000    -0.095949
 C     0.000000     0.000000    -1.402762
 C     0.000000     0.000000    -2.696923
 H     0.000000     0.930394     3.064040
 H     0.000000    -0.930394     3.064040

-------- ENERGY AND PROPERTIES --------

 Rotational constants:       2.2584374      2.2761874    289.6130087 GHz

ECCSD(T)/aug-cc-pVTZ' = -191.126223 Eh

  ALPHA_XX  ALPHA_YY  ALPHA_ZZ     ALPHA      MU_X      MU_Y      MU_Z       MU
     5.539     5.844    22.587    11.323     0.000     0.000    -5.894     5.894
