5
H2CCO(^1A_1) - ketene
 C     0.000000     0.000000     1.298324
 C     0.000000     0.000000    -0.021046
 H     0.000000     0.942985     1.822060
 H     0.000000    -0.942985     1.822060
 O     0.000000     0.000000    -1.188447

-------- ENERGY AND PROPERTIES --------

 Rotational constants:       9.8448437     10.2010585    281.9305776 GHz

ECCSD(T)/aug-cc-pVTZ = -152.369102 Eh

  ALPHA_XX  ALPHA_YY  ALPHA_ZZ     ALPHA      MU_X      MU_Y      MU_Z       MU
     3.330     3.203     6.368     4.301     0.000     0.000    -1.415     1.415
