4
H2CS(^1A_1) - thioformaldehyde
 S     0.000000     0.000000     0.517879
 C     0.000000     0.000000    -1.101206
 H     0.000000     0.924411    -1.675006
 H     0.000000    -0.924411    -1.675006

-------- ENERGY AND PROPERTIES --------

 Rotational constants:      16.5469470     17.5360162    293.3743480 GHz

ECCSD(T)/aug-cc-pVTZ = -436.944579 Eh

  ALPHA_XX  ALPHA_YY  ALPHA_ZZ     ALPHA      MU_X      MU_Y      MU_Z       MU
     3.872     4.580     6.588     5.014     0.000     0.000     1.680     1.680
