4
H2SiO(^1A_1)
 O     0.000000     0.000000     1.033426
SI     0.000000     0.000000    -0.493697
 H     0.000000     1.224448    -1.323718
 H     0.000000    -1.224448    -1.323718

-------- ENERGY AND PROPERTIES --------

 Rotational constants:      16.5768642     18.4010715    167.2134890 GHz

ECCSD(T)/aug-cc-pVTZ = -365.384981 Eh

  ALPHA_XX  ALPHA_YY  ALPHA_ZZ     ALPHA      MU_X      MU_Y      MU_Z       MU
     3.788     4.494     5.391     4.558     0.000     0.000     3.734     3.734
