6
H2SiC2H(^2Ap')
SI    -1.113039     0.000000     0.053202
 C     0.705576     0.000000    -0.034435
 C     1.926928     0.000000     0.001492
 H     2.992355     0.000000     0.017288
 H    -1.674147    -1.227166    -0.553577
 H    -1.674147     1.227166    -0.553577

-------- ENERGY AND PROPERTIES --------

 Rotational constants:     134.8534248      5.0157655      4.9026862 GHz

ERCCSD(T)/aug-cc-pVTZ = -366.816912 Eh

  ALPHA_XX  ALPHA_YY  ALPHA_ZZ     ALPHA      MU_X      MU_Y      MU_Z       MU
    11.196     6.584     5.859     7.880    -0.425     0.000     0.000     0.425
