7
HC5N(^1Sigma^+) - cyanodiacetylene
 H     0.000000     0.000000    -4.284287
 C     0.000000     0.000000    -3.218743
 C     0.000000     0.000000    -2.002897
 C     0.000000     0.000000    -0.630471
 C     0.000000     0.000000     0.588836
 C     0.000000     0.000000     1.966656
 N     0.000000     0.000000     3.135214

-------- ENERGY AND PROPERTIES --------

 Rotational constants:       1.3154194      1.3154194      0.0000000 GHz

ECCSD(T)/aug-cc-pVTZ' = -245.294796 Eh

  ALPHA_XX  ALPHA_YY  ALPHA_ZZ     ALPHA      MU_X      MU_Y      MU_Z       MU
     5.429     5.429    20.392    10.416     0.000     0.000     4.405     4.405
