8
HC6N(3Sigma^-)
 H     0.000000     0.000000    -4.999762
 C     0.000000     0.000000    -3.921276
 C     0.000000     0.000000    -2.670290
 C     0.000000     0.000000    -1.320293
 C     0.000000     0.000000    -0.027267
 C     0.000000     0.000000     1.265434
 C     0.000000     0.000000     2.631452
 N     0.000000     0.000000     3.826083

-------- ENERGY AND PROPERTIES --------

 Rotational constants:       0.8100066      0.8100066      0.0000000 GHz

ERCCSD(T)/aug-cc-PVDZ = -283.019429 Eh

  ALPHA_XX  ALPHA_YY  ALPHA_ZZ     ALPHA      MU_X      MU_Y      MU_Z       MU
     6.365     6.365    32.468    15.066     0.000     0.000     4.894     4.894
