3
HCS(^2A') - thioformyl radical
 H    -1.872435     0.677710     0.000000
 C    -1.095647    -0.085101     0.000000
 S     0.469342     0.010576     0.000000

-------- ENERGY AND PROPERTIES --------

 Rotational constants:     913.0458330     20.2033343     19.7659648 GHz

ERCCSD(T)/aug-cc-pVTZ = -436.287710 Eh

  ALPHA_XX  ALPHA_YY  ALPHA_ZZ     ALPHA      MU_X      MU_Y      MU_Z       MU
     6.715     4.210     3.721     4.882     0.382    -0.887     0.000     0.966
