1
He(^1Sigma) - atomic Helium
 He     0.000000     0.000000    0.000000

-------- ENERGY AND PROPERTIES --------

 Rotational constants:    0    0    0

CCSD(T)/aug-cc-pVTZ = -2.900598 Eh

  ALPHA_XX  ALPHA_YY  ALPHA_ZZ     ALPHA      MU_X      MU_Y      MU_Z       MU
     0     0     0     0     0     0     0     0