5
HNCCC(^1A')
 H    -2.543877     0.547922     0.000000
 N    -1.741525    -0.054674     0.000000
 C    -0.550603     0.026951     0.000000
 C     0.759077    -0.030894     0.000000
 C     2.035893     0.021721     0.000000

-------- ENERGY AND PROPERTIES --------

 Rotational constants:    1364.6843164      4.6216744      4.6060754 GHz

ECCSD(T)/aug-cc-pVTZ = -169.206662 Eh

  ALPHA_XX  ALPHA_YY  ALPHA_ZZ     ALPHA      MU_X      MU_Y      MU_Z       MU
    13.340     4.366     4.291     7.332     5.590    -1.003     0.000     5.679
