2
LiH(^1Sigma^+) - lithium hydride
LI     0.000000     0.000000    -0.204176
 H     0.000000     0.000000     1.406020

-------- ENERGY AND PROPERTIES --------

 Rotational constants:     221.4683744    221.4683744      0.0000000 GHz

ECCSD(T)/aug-cc-pVTZ = -8.023143 Eh

  ALPHA_XX  ALPHA_YY  ALPHA_ZZ     ALPHA      MU_X      MU_Y      MU_Z       MU
     4.410     4.410     3.911     4.243     0.000     0.000     5.899     5.899
