1
N(^4Sigma) - atomic nitrogen
 N     0.000000     0.000000    0.000000

-------- ENERGY AND PROPERTIES --------

 Rotational constants:    0    0    0

CCSD(T)/cc-pVTZ = -54.514707 Eh

  ALPHA_XX  ALPHA_YY  ALPHA_ZZ     ALPHA      MU_X      MU_Y      MU_Z       MU
     0     0     0     0     0     0     0     0