3
NaOH(^1Sigma^+) - sodium hydroxide
NA     0.000000     0.000000    -0.867533
 O     0.000000     0.000000     1.116126
 H     0.000000     0.000000     2.070679

-------- ENERGY AND PROPERTIES --------

 Rotational constants:      12.1615925     12.1615925      0.0000000 GHz

ECCSD(T)/aug-cc-pVTZ = -237.627565 Eh

  ALPHA_XX  ALPHA_YY  ALPHA_ZZ     ALPHA      MU_X      MU_Y      MU_Z       MU
     3.091     3.091     2.830     3.004     0.000     0.000     7.095     7.095
