3
NO2(^2A_1) - nitrogen dioxide
 N     0.000000     0.000000    -0.324356
 O     0.000000     1.104697     0.141979
 O     0.000000    -1.104697     0.141979

-------- ENERGY AND PROPERTIES --------

 Rotational constants:      12.2758355    238.5391964     12.9418565 GHz

ERCCSD(T)/aug-cc-pVTZ = -204.816669 Eh

  ALPHA_XX  ALPHA_YY  ALPHA_ZZ     ALPHA      MU_X      MU_Y      MU_Z       MU
     1.835     4.454     2.196     2.828     0.000     0.000     0.315     0.315
