3
OCS(^1Sigma^+) - carbonyl sulfide 
 O     0.000000     0.000000    -1.691440
 C     0.000000     0.000000    -0.528608
 S     0.000000     0.000000     1.042144

-------- ENERGY AND PROPERTIES --------

 Rotational constants:       6.0200496      6.0200496      0.0000000 GHz

ECCSD(T)/aug-cc-pVTZ = -510.933306 Eh

  ALPHA_XX  ALPHA_YY  ALPHA_ZZ     ALPHA      MU_X      MU_Y      MU_Z       MU
     3.817     3.817     7.877     5.170     0.000     0.000    -0.713     0.713
