2
S2(^3Sigma_g^-) - sulfur dimer
 S     0.000000     0.000000    -0.952888
 S     0.000000     0.000000     0.952888

-------- ENERGY AND PROPERTIES --------

 Rotational constants:       8.6804011      8.6804011      0.0000000 GHz

ERCCSD(T)/aug-cc-pVTZ = -795.467737 Eh

  ALPHA_XX  ALPHA_YY  ALPHA_ZZ     ALPHA      MU_X      MU_Y      MU_Z       MU
     4.689     4.689     8.606     5.994     0.000     0.000     0.000     0.000
