5
SiC4(^1Sigma^+)
 C     0.000000     0.000000    -3.280133
 C     0.000000     0.000000    -1.992130
 C     0.000000     0.000000    -0.687125
 C     0.000000     0.000000     0.592935
SI     0.000000     0.000000     2.295009

-------- ENERGY AND PROPERTIES --------

 Rotational constants:       1.5098634      1.5098634      0.0000000 GHz

ECCSD(T)/aug-cc-pVTZ = -440.956701 Eh

  ALPHA_XX  ALPHA_YY  ALPHA_ZZ     ALPHA      MU_X      MU_Y      MU_Z       MU
     7.844     7.844    32.716    16.135     0.000     0.000    -6.442     6.442
