10
SiC8H(^2Pi)
 H     0.000000     0.000000    -7.013507
 C     0.000000     0.000000    -5.935707
 C     0.000000     0.000000    -4.698803
 C     0.000000     0.000000    -3.315927
 C     0.000000     0.000000    -2.071924
 C     0.000000     0.000000    -0.700500
 C     0.000000     0.000000     0.548640
 C     0.000000     0.000000     1.914862
 C     0.000000     0.000000     3.181708
SI     0.000000     0.000000     4.989153

-------- ENERGY AND PROPERTIES --------

 Rotational constants:       0.2814212      0.2814212      0.0000000 GHz

ERCCSD(T)/aug-cc-pVDZ = -593.362940 Eh

  ALPHA_XX  ALPHA_YY  ALPHA_ZZ     ALPHA      MU_X      MU_Y      MU_Z       MU
    11.823    11.033    68.160    30.339     0.000     0.000     1.018     1.018
