5
SiH4(^1A_1) - silane
SI     0.000000     0.000000     0.000000
 H     0.854570     0.854570     0.854570
 H    -0.854570    -0.854570     0.854570
 H    -0.854570     0.854570    -0.854570
 H     0.854570    -0.854570    -0.854570

-------- ENERGY AND PROPERTIES --------

ROTA

ECCSD(T)/aug-cc-pVTZ = -291.442788 Eh

  ALPHA_XX  ALPHA_YY  ALPHA_ZZ     ALPHA      MU_X      MU_Y      MU_Z       MU
     4.588     4.588     4.588     4.588     0.000     0.000     0.000     0.000
