5
 xtb: 6.2.2 (9d81278992624c895f80dd42a50cac0aa55982e2)
C        -0.06199218944397    0.00012192150798   -0.12693616785511
N        -1.15278922922729    0.76503308657033    0.04782099514928
C         1.29665514650472    0.57593481972111   -0.00160219438079
H         0.10236837424898   -0.53362075678721    0.94378890885280
H        -0.18223707041927   -0.80541880063538   -0.81035372754593
