5
 xtb: 6.2.2 (9d81278992624c895f80dd42a50cac0aa55982e2)
C        -1.23891734581641    0.76959477422609    0.10639166107176
C         0.36782314360351    0.68672424106062   -0.15661203153351
C         0.34895280812406   -0.78956762336870   -0.06822699130921
C         1.50934408119886   -0.09613420888198    0.14121374369995
C        -0.98720168711876   -0.57061818304301   -0.02276738193073
