4
 xtb: 6.2.2 (9d81278992624c895f80dd42a50cac0aa55982e2)
C         0.32747829055036   -0.15932988381632   -0.01661101645353
C        -0.74922296635109   -0.60347297982533   -0.02116793657590
C        -0.97132309090042    0.81027894093499    0.06886843281547
H         1.39277296254070   -0.05771437287652   -0.03167025882687
