5
 xtb: 6.2.2 (9d81278992624c895f80dd42a50cac0aa55982e2)
C         0.13061202421420    1.32745375778608   -0.15351275083828
O         1.26267135816710    1.20507864357185   -0.26042272661516
O        -1.00134716728691    1.45246960038032   -0.04731682155073
H        -0.34543941364856   -1.93165973411200    0.63026178511540
H        -0.04639703437380   -2.05331979747185   -0.16897948146988
