5
 xtb: 6.2.2 (9d81278992624c895f80dd42a50cac0aa55982e2)
N         1.56789361909961   -0.73191530642655   -0.04152143453770
C         0.58786571663959   -0.02111457167663   -0.00760809939369
C        -1.00272874612000    0.37295886625580    0.33837807275783
C        -0.04578068239783    1.21284015244353   -0.15502167285400
C        -1.10592458202727   -0.82974840710373   -0.13424793502762
