5
 xtb: 6.2.2 (9d81278992624c895f80dd42a50cac0aa55982e2)
N         1.34767846746466    0.01085346371584    0.05858539569986
C         0.30324069251955   -0.74966217853851    0.01297579374501
C        -1.06506399346593   -0.80302085606122   -0.04641282068052
C         0.42800836320056    1.00997910835220    0.01811524338943
C        -1.01397993642942    0.53488954520439   -0.04329869789428
