10
C9O_1X.(1-A) - 
 C     0.000264     0.000000     0.012284
 C     0.000426     0.000000     1.295841
 C     0.000372     0.000000     2.557914
 C     0.001345    -0.000000     3.839038
 C     0.003083    -0.000000     5.100226
 C     0.006012     0.000000     6.385488
 O     0.008393    -0.000000     7.534445
 C     0.000878     0.000000    -1.246744
 C     0.001787    -0.000000    -2.541486
 C     0.003077    -0.000000    -3.814377

-------- ENERGY AND PROPERTIES --------

 Rotational constants:       0.0000000       0.0000000       0.0000000 GHz

ECCSD(T)/aug-cc-pVTZ = -417.09626195 Eh

  ALPHA_XX  ALPHA_YY  ALPHA_ZZ     ALPHA      MU_X      MU_Y      MU_Z       MU
     0.000     0.000     0.000     0.000     0.000     0.000     0.000     0.000
